# total energy = -0.2551940286984973 eV

CRYSTAL
PRIMVEC
 3.95084472041096 0.00000000000000 0.00000000000000
 0.00000000000000 3.95084472041096 0.00000000000000
 0.00000000000000 0.00000000000000 3.95084472041096
PRIMCOORD
 4 1
Pt    0.0000000000    0.0000000000    0.0000000000    0.0000000000    0.0000000000    0.0000000000 
Pt    0.0000000000    1.9754221602    1.9754221602    0.0000000000    0.0000000000    0.0000000000 
Pt    1.9754221602    0.0000000000    1.9754221602    0.0000000000    0.0000000000    0.0000000000 
Pt    1.9754221602    1.9754221602    0.0000000000    0.0000000000    0.0000000000    0.0000000000 
