# total energy = 1.6008650235935562 eV

SLAB
PRIMVEC
2.79366881036720 0.00000000000000 0.00000000000000
1.39683440518360 2.41938815953824 0.00000000000000
0.00000000000000 0.00000000000000 24.56204206381849
PRIMCOORD
4 1
Pt     1.3968344052    0.8064627198   10.0000000000    0.0000025711   -0.0000015427   -0.4197884187
Pt     2.7936688104    1.6129254397   12.2810210319   -0.0000017998   -0.0000002571   -0.0289434249
Pt     0.0000000000    0.0000000000   14.5620420638   -0.0000007713    0.0000020569    2.8207220302
H     0.0000000000    0.0000000000   16.3620420638    0.0000002571    0.0000000000   -2.3719901866
